LTspice 24.0.12 for Windows
Circuit: *
Start Time: Thu Jan 29 16:47:01 2026
solver = Normal
Maximum thread count: 12
tnom = 27
temp = 27
method = modified trap
Early termination of direct N-R iteration.
Direct Newton iteration failed to find .op point.  (Use ".option noopiter" to skip.)
Starting Gmin stepping
Increasing initial diagonal Gmin to 100
Gmin = 100
Gmin = 10.7374
Gmin = 1.15292
vernier = 0.5
vernier = 0.666667
Gmin = 0.4029
vernier = 0.888888
vernier = 1
Gmin = 0.06089
Gmin = 0.00653801
Gmin = 0.000702013
Gmin = 7.53781e-05
Gmin = 8.09366e-06
Gmin = 8.6905e-07
Gmin = 9.33136e-08
Gmin = 1.00195e-08
Gmin = 1.07583e-09
Gmin = 1.15517e-10
Gmin = 1.24035e-11
Gmin = 1.33182e-12
Gmin = 1.43003e-13
Gmin = 0
Gmin stepping succeeded in finding the operating point.

N-Period=1
Fourier components of V(out)
DC component:-0.0490594

Harmonic	Frequency	 Fourier 	Normalized	 Phase  	Normalized
 Number 	  [Hz]   	Component	 Component	[degree]	Phase [deg]
    1   	 1.000e+3	 9.984e+0	 1.000e+0	  -87.70°	    0.00°
    2   	 2.000e+3	 1.352e-3	 1.354e-4	  175.92°	  263.63°
    3   	 3.000e+3	 1.574e-3	 1.576e-4	  -88.15°	   -0.45°
    4   	 4.000e+3	 1.276e-3	 1.279e-4	   -3.92°	   83.79°
    5   	 5.000e+3	 1.061e-3	 1.063e-4	  111.33°	  199.03°
    6   	 6.000e+3	 1.443e-3	 1.445e-4	 -172.91°	  -85.20°
    7   	 7.000e+3	 1.533e-3	 1.536e-4	  -87.95°	   -0.24°
    8   	 8.000e+3	 1.158e-3	 1.159e-4	   -4.58°	   83.13°
    9   	 9.000e+3	 1.007e-3	 1.008e-4	   64.88°	  152.58°
Partial Harmonic Distortion: 0.037271%
Total Harmonic Distortion:   0.050429%


N-Period=1
Fourier components of V(mbg)
DC component:0.000995377

Harmonic	Frequency	 Fourier 	Normalized	 Phase  	Normalized
 Number 	  [Hz]   	Component	 Component	[degree]	Phase [deg]
    1   	 1.000e+3	 9.797e-2	 1.000e+0	   90.15°	    0.00°
    2   	 2.000e+3	 1.333e-5	 1.361e-4	   -3.51°	  -93.66°
    3   	 3.000e+3	 1.518e-5	 1.550e-4	   91.80°	    1.65°
    4   	 4.000e+3	 1.265e-5	 1.291e-4	  176.29°	   86.14°
    5   	 5.000e+3	 1.017e-5	 1.038e-4	  -69.44°	 -159.59°
    6   	 6.000e+3	 1.416e-5	 1.445e-4	    7.64°	  -82.51°
    7   	 7.000e+3	 1.502e-5	 1.533e-4	   91.55°	    1.40°
    8   	 8.000e+3	 1.133e-5	 1.157e-4	  175.94°	   85.79°
    9   	 9.000e+3	 1.004e-5	 1.025e-4	 -114.96°	 -205.11°
Partial Harmonic Distortion: 0.037186%
Total Harmonic Distortion:   0.050430%


N-Period=1
Fourier components of V(hpg)
DC component:0.000500029

Harmonic	Frequency	 Fourier 	Normalized	 Phase  	Normalized
 Number 	  [Hz]   	Component	 Component	[degree]	Phase [deg]
    1   	 1.000e+3	 1.010e-3	 1.000e+0	  101.59°	    0.00°
    2   	 2.000e+3	 1.822e-7	 1.803e-4	   24.86°	  -76.73°
    3   	 3.000e+3	 3.529e-7	 3.493e-4	   55.60°	  -45.99°
    4   	 4.000e+3	 8.561e-8	 8.474e-5	 -151.05°	 -252.64°
    5   	 5.000e+3	 2.595e-7	 2.569e-4	  -82.69°	 -184.28°
    6   	 6.000e+3	 1.102e-7	 1.091e-4	   15.55°	  -86.04°
    7   	 7.000e+3	 2.258e-7	 2.235e-4	  125.65°	   24.05°
    8   	 8.000e+3	 1.054e-7	 1.044e-4	  169.89°	   68.30°
    9   	 9.000e+3	 1.147e-7	 1.135e-4	    0.32°	 -101.27°
Partial Harmonic Distortion: 0.055976%
Total Harmonic Distortion:   0.078997%


N-Period=1
Fourier components of V(lpg)
DC component:0.000500489

Harmonic	Frequency	 Fourier 	Normalized	 Phase  	Normalized
 Number 	  [Hz]   	Component	 Component	[degree]	Phase [deg]
    1   	 1.000e+3	 9.939e-4	 1.000e+0	   78.56°	    0.00°
    2   	 2.000e+3	 1.801e-7	 1.812e-4	  -41.21°	 -119.77°
    3   	 3.000e+3	 8.248e-8	 8.299e-5	  110.75°	   32.19°
    4   	 4.000e+3	 1.418e-7	 1.427e-4	 -165.94°	 -244.50°
    5   	 5.000e+3	 1.259e-7	 1.266e-4	  -76.43°	 -154.99°
    6   	 6.000e+3	 1.399e-7	 1.408e-4	   -4.25°	  -82.80°
    7   	 7.000e+3	 1.145e-7	 1.152e-4	   90.17°	   11.61°
    8   	 8.000e+3	 1.157e-7	 1.164e-4	 -170.63°	 -249.19°
    9   	 9.000e+3	 1.194e-7	 1.202e-4	 -111.59°	 -190.15°
Partial Harmonic Distortion: 0.037044%
Total Harmonic Distortion:   0.050453%


Total elapsed time: 13.812 seconds.

